R1 N332 N111 34k
L1 N593 0 100m
C1 N273 0 150µ
V1 N586 N209 AC(-5p 89)
V2 N874 N023 89n
*netlist for parse test
I1 N482 N042 AC(34 67)
I2 N038 N308 3Meg
G1 N494 N230 N028 N034 5.6
D1 N931 N931 D
Q1 N399 N370 N037 NPN
Q2 N048 N038 N482 PNP
M1 N823 N947 N972 NMOS
M2 N028 N082 N028 PMOS
.ac dec 10 0.001 100k
.end


