R1 0 N004 100k
R2 N002 N001 50k
L1 N002 N003 1m
C1 N003 0 1n
I1 N002 0 AC(2 78)
R3 N001 N004 1m
.ac dec 10 10 10Meg
.end