I1 0 N001 AC(1 0)
C1 N001 0 1n
L1 N001 0 100µ
.ac dec 100 100 1Meg
.end
