V1 N001 0 AC(4 30)
I1 N004 N003 AC(2 78)
R1 N003 0 100k
R2 N004 N001 50k
L1 N004 N002 1m
C1 N002 N003 1n
I2 N001 0 AC(3 15)
V2 N003 N002 AC(1 35)
.ac dec 10 10 10Meg
.end