V1 N001 0 20
V2 N005 0 AC(5 30)
R1 N001 N004 22k
R2 N004 0 240k
C1 N004 N005 100µ
R3 N001 N002 1k
C2 N003 N002 100µ
R4 N001 N003 5k
R5 N006 0 10k
M1 N006 N004 N002 PMOS
.ac dec 10 0.001 100k
.end
