V1 N001 N004 AC(5 45)
R1 N002 N001 10k
R2 0 N004 26k
C1 N003 0 100µ
L1 N002 N003 1m
.ac dec 10 0.001 100k
.end
