V1 N001 0 AC(1 0)
R1 N001 N002 28k
R2 N002 N003 100k
V2 N002 N003 5
C1 N003 0 1µ
*Low pass filter
.ac dec 10 0.001 100k
.end