M1 N002 N005 N006 NMOS
V1 N001 0 10
R1 N001 N002 2.2k
R2 N002 N005 10Meg
C1 N005 N004 100µ
V2 N004 0 AC(7 24)
C2 N003 N002 100µ
R3 N003 0 1k
R4 N006 0 3k
.ac dec 10 0.001 100k
.end

