V1 N001 0 20
V2 N003 0 AC(5 30)
R1 N001 N004 22k
R2 N004 0 240k
C1 N004 N003 100µ
R3 N001 N002 1k
R4 N005 0 10k
C2 N006 N005 100µ
R5 N001 N006 5k
Q1 N005 N004 N002 PNP
.ac dec 10 0.001 100k
.end