V1 N001 0 AC(4 30)
I1 N002 N004 AC(2 78)
R1 N004 0 100k
R2 N002 N001 50k
L1 N002 N003 1m
C1 N003 N004 1n
.ac dec 10 10 10Meg
.end