V1 N001 N002 AC(0.5 0)
R1 N001 N003 10k
C1 N003 0 100n
V2 N002 0 5
.ac dec 10 0.01 10k
.backanno
.end