R1 N001 N003 1k
C1 N001 0 1µ
L1 N002 N001 1m
I1 0 N004 0.1
I2 N156 N032 AC(5m 168)
V1 N003 0 2n
V2 N005 N012 AC(3k 50)
D1 N004 N002 D
Q1 N003 N001 0 NPN
M1 N012 N116 N020 NMOS
G1 N001 N002 N003 N157 1m
.ac dec 10 10 100k